
 OpenBabel03071213D

 10 10  0  0  0  0  0  0  0  0999 V2000
   13.3190   57.7020   51.9740 O   0  0  0  0  0
   14.7660   57.3640   56.2550 O   0  0  0  0  0
   11.0560   56.7750   53.3360 O   0  0  0  0  0
   12.0600   56.8900   56.0760 O   0  0  0  0  0
   14.6610   55.8770   52.9310 C   0  0  0  0  0
   15.1210   56.7460   54.0290 O   0  0  0  0  0
   13.2800   56.3730   52.5190 C   0  0  0  0  0
   14.3120   56.5670   55.2040 C   0  0  0  0  0
   12.3320   56.2800   53.7250 C   0  0  0  0  0
   12.8970   57.0410   54.9240 C   0  0  0  0  0
  1  7  1  0  0  0
  2  8  1  0  0  0
  3  9  1  0  0  0
  4 10  1  0  0  0
  5  6  1  0  0  0
  5  7  1  0  0  0
  6  8  1  0  0  0
  7  9  1  0  0  0
  8 10  1  0  0  0
  9 10  1  0  0  0
M  END
>  <MOLID> (1abeA1)
1abeA1

>  <SMILES_CANONICAL> (1abeA1)
O[C@H]1CO[C@H]([C@@H]([C@H]1O)O)O	

>  <FINGERPRINT> (1abeA1)
0000000000000000000000000000000000000001000000000000000000000000000000000000000000000000000000000000000000000001000000010000000010000000001010000000000001000000000000000000000000000000000000000000000000000000001010000000000000000000000000000000000000000000000000000000000000000000000000000000000100000000000000000010000000000000000000000000000000000000010000000000000010000000000000000000000000000000000000000000000000000010000000000000000000000000000000000000000000000000000000000000000000101010100000000000100000000000000000000000000000000000000000000000000000000000000000000001000101000000000000000000000000000000000000000000000000000001000000000000000000000000001000000000000000000000000000000000000000000101000000000000000000000000000010000000000000000000000100000000000000000000000001000000000000000000000000000000000000000000000000000000000000000000000000000010000000000000000000000010000000000000000000000000001000000000000000000000000000000000000000000000000010100000000000000000000000000000000000000000000000000000

>  <MACCS166> (1abeA1)
000000000000000000000000000000000000000000000000000011001000000000000001000000000000000011100000010000010000000000000001001000100011000011110010010001011000101000111000

>  <OB_MW> (1abeA1)
150.053

>  <OB_logP> (1abeA1)
-2.5823

>  <OB_PSA> (1abeA1)
90.15

>  <OB_MR> (1abeA1)
29.7672

>  <OB_ATOMIC_CHARGES> (1abeA1)
-0.217606797 -0.1869438158 -0.2173905153 -0.2147572358 0.1804028407 -0.3237350579 0.2143047962 0.3023504935 0.2199286944 0.2434465971

>  <MCT_HBD> (1abeA1)
4

>  <MCT_HBA> (1abeA1)
5

>  <ENSEMBLE_TOTAL> (1abeA1)
2

>  <ENSEMBLE_COORDS> (1abeA1)
-0.0614 0.9405 -2.1233 1.3856 0.6025 2.1577 -2.3244 0.0135 -0.7613 -1.3204 0.1285 1.9787 1.2806 -0.8845 -1.1663 1.7406 -0.0155 -0.0683 -0.1004 -0.3885 -1.5783 0.9316 -0.1945 1.1067 -1.0484 -0.4815 -0.3723 -0.4834 0.2795 0.8267
-0.4362 -0.1167 -2.7447 1.3750 0.0403 2.4257 -2.2480 0.1084 -0.6614 -1.3158 0.1842 1.9333 1.3581 -0.1491 -1.1965 1.7026 -0.1040 0.0771 -0.0093 -0.0757 -1.4520 0.9274 0.0009 1.1344 -0.9116 0.0366 -0.4088 -0.4422 0.0750 0.8929

>  <OB_ATOM_TYPES> (1abeA1)
O.3 O.3 O.3 O.3 C.3 O.3 C.3 C.3 C.3 C.3

>  <ENSEMBLE_RMSD> (1abeA1)
0.000 0.560

$$$$
